Version 4
SHEET 1 880 680
WIRE 176 48 96 48
WIRE 352 48 256 48
WIRE -80 144 -208 144
WIRE 96 144 96 48
WIRE 96 144 0 144
WIRE 112 144 96 144
WIRE -208 160 -208 144
WIRE 208 160 176 160
WIRE 224 160 208 160
WIRE 352 160 352 48
WIRE 352 160 304 160
WIRE 112 176 96 176
WIRE 208 208 208 160
WIRE 352 208 352 160
WIRE 720 288 688 288
WIRE 864 288 800 288
WIRE 96 320 96 176
WIRE 96 320 64 320
WIRE 352 320 352 288
WIRE 352 320 96 320
WIRE 576 400 512 400
WIRE 688 400 688 288
WIRE 688 400 656 400
WIRE 720 400 688 400
WIRE 864 416 864 288
WIRE 864 416 784 416
WIRE 720 432 672 432
WIRE 672 464 672 432
FLAG 512 112 Vcc
FLAG 512 192 0
FLAG 208 208 Vi
FLAG -208 240 0
FLAG 64 320 Vref
FLAG 656 192 0
FLAG 656 112 Vref
FLAG 672 544 Vref
FLAG 448 400 Vi
FLAG 752 448 0
FLAG 144 192 0
FLAG 144 128 Vcc
FLAG 752 384 Vcc
SYMBOL Opamps\\UniversalOpamp2 144 160 R0
SYMATTR InstName U1
SYMBOL res -96 160 R270
WINDOW 0 32 56 VTop 2
WINDOW 3 0 56 VBottom 2
SYMATTR InstName R1
SYMATTR Value 100k
SYMBOL res 160 64 R270
WINDOW 0 32 56 VTop 2
WINDOW 3 0 56 VBottom 2
SYMATTR InstName R2
SYMATTR Value 1k
SYMBOL res 336 192 R0
SYMATTR InstName R3
SYMATTR Value 1k
SYMBOL res 208 176 R270
WINDOW 0 32 56 VTop 2
WINDOW 3 0 56 VBottom 2
SYMATTR InstName Relectrodo
SYMATTR Value 2.5meg
SYMBOL voltage 512 96 R0
SYMATTR InstName V1
SYMATTR Value 5
SYMBOL voltage -208 144 R0
WINDOW 123 0 0 Left 2
WINDOW 39 0 0 Left 2
SYMATTR InstName V2
SYMATTR Value SINE(2.5 1.5m 1k)
SYMBOL voltage 656 96 R0
SYMATTR InstName V3
SYMATTR Value 2.5
SYMBOL Opamps\\UniversalOpamp2 752 416 R0
SYMATTR InstName U2
SYMBOL res 704 304 R270
WINDOW 0 32 56 VTop 2
WINDOW 3 0 56 VBottom 2
SYMATTR InstName R6
SYMATTR Value 150k
SYMBOL res 656 448 R0
SYMATTR InstName R5
SYMATTR Value 1k
SYMBOL res 560 416 R270
WINDOW 0 32 56 VTop 2
WINDOW 3 0 56 VBottom 2
SYMATTR InstName R4
SYMATTR Value 10k
SYMBOL cap 448 416 R270
WINDOW 0 32 32 VTop 2
WINDOW 3 0 32 VBottom 2
SYMATTR InstName C1
SYMATTR Value 1µ
TEXT 0 440 Left 2 !.tran 0 4m 0 1u
