Version 4
SHEET 1 1240 1092
WIRE -512 64 -672 64
WIRE -288 64 -448 64
WIRE 0 64 -112 64
WIRE 176 64 80 64
WIRE 544 128 496 128
WIRE 672 128 624 128
WIRE -432 144 -448 144
WIRE -288 160 -288 64
WIRE -288 160 -368 160
WIRE -240 160 -288 160
WIRE -112 160 -112 64
WIRE -112 160 -160 160
WIRE -96 160 -112 160
WIRE -1696 176 -1984 176
WIRE -928 176 -1472 176
WIRE -816 176 -848 176
WIRE -784 176 -816 176
WIRE -672 176 -672 64
WIRE -672 176 -704 176
WIRE -640 176 -672 176
WIRE -528 176 -560 176
WIRE -432 176 -528 176
WIRE 0 176 -32 176
WIRE 48 176 0 176
WIRE 176 176 176 64
WIRE 176 176 128 176
WIRE -1984 192 -1984 176
WIRE -288 192 -288 160
WIRE -96 192 -112 192
WIRE -816 240 -816 176
WIRE -1696 256 -1744 256
WIRE -1424 256 -1472 256
WIRE -1328 256 -1424 256
WIRE -1280 256 -1328 256
WIRE -528 256 -528 176
WIRE 0 256 0 176
WIRE 256 256 0 256
WIRE 352 256 320 256
WIRE 496 256 496 128
WIRE 496 256 432 256
WIRE 544 256 496 256
WIRE -1328 272 -1328 256
WIRE 672 272 672 128
WIRE 672 272 608 272
WIRE 736 272 672 272
WIRE -1984 288 -1984 272
WIRE -1744 288 -1744 256
WIRE -448 288 -448 144
WIRE -288 288 -288 272
WIRE -288 288 -448 288
WIRE 544 288 496 288
WIRE -288 304 -288 288
WIRE 496 320 496 288
WIRE -1696 336 -1744 336
WIRE -1424 336 -1472 336
WIRE -112 336 -112 192
WIRE 0 336 -112 336
WIRE 176 336 176 176
WIRE 176 336 80 336
WIRE -1328 352 -1328 336
WIRE -1744 368 -1744 336
WIRE -816 432 -816 320
WIRE -816 432 -848 432
WIRE -528 432 -528 320
WIRE -528 432 -816 432
WIRE -288 432 -288 384
WIRE -288 432 -528 432
WIRE 496 432 496 400
WIRE 496 432 464 432
WIRE -1744 464 -1744 448
WIRE -1984 480 -1984 464
WIRE -512 560 -672 560
WIRE -288 560 -448 560
WIRE -1984 576 -1984 560
WIRE -432 640 -448 640
WIRE -288 656 -288 560
WIRE -288 656 -368 656
WIRE -112 656 -112 336
WIRE -112 656 -288 656
WIRE -1472 672 -1680 672
WIRE -928 672 -1248 672
WIRE -816 672 -848 672
WIRE -784 672 -816 672
WIRE -672 672 -672 560
WIRE -672 672 -704 672
WIRE -640 672 -672 672
WIRE -528 672 -560 672
WIRE -432 672 -528 672
WIRE -1680 688 -1680 672
WIRE -288 688 -288 656
WIRE 176 704 144 704
WIRE 288 704 256 704
WIRE -1472 752 -1520 752
WIRE -1200 752 -1248 752
WIRE -1104 752 -1200 752
WIRE -1056 752 -1104 752
WIRE -816 752 -816 672
WIRE -528 752 -528 672
WIRE 64 752 64 736
WIRE -1104 768 -1104 752
WIRE -1680 784 -1680 768
WIRE -1520 784 -1520 752
WIRE -448 784 -448 640
WIRE -288 784 -288 768
WIRE -288 784 -448 784
WIRE -288 800 -288 784
WIRE 144 816 144 704
WIRE 160 816 144 816
WIRE -1472 832 -1520 832
WIRE -1200 832 -1248 832
WIRE 288 832 288 704
WIRE 288 832 224 832
WIRE 320 832 288 832
WIRE -1104 848 -1104 832
WIRE 64 848 64 832
WIRE 160 848 64 848
WIRE -1520 864 -1520 832
WIRE 64 864 64 848
WIRE -816 928 -816 832
WIRE -816 928 -848 928
WIRE -528 928 -528 816
WIRE -528 928 -816 928
WIRE -288 928 -288 880
WIRE -288 928 -528 928
WIRE -1520 960 -1520 944
WIRE 64 960 64 944
FLAG -1984 464 Vcc
FLAG -1984 576 0
FLAG 576 304 0
FLAG -64 208 0
FLAG -64 144 Vcc
FLAG 576 240 Vcc
FLAG -1984 288 0
FLAG -1744 288 0
FLAG -1280 256 Vcc
FLAG -1744 464 0
FLAG -1328 352 0
FLAG -1424 416 0
FLAG -400 192 0
FLAG -400 128 Vcc
FLAG 64 736 Vcc
FLAG 64 960 0
FLAG 192 800 Vcc
FLAG 192 864 0
FLAG 320 832 Vcc/2
FLAG 736 272 ADC
FLAG -1680 784 0
FLAG -1520 784 0
FLAG -1056 752 Vcc
FLAG -1520 960 0
FLAG -1104 848 0
FLAG -1200 912 0
FLAG -400 688 0
FLAG -400 624 Vcc
FLAG -848 928 Vcc/2
FLAG -848 432 Vcc/2
FLAG 464 432 Vcc/2
FLAG -112 656 offset
SYMBOL Opamps\\UniversalOpamp2 -64 176 R0
SYMATTR InstName U4
SYMATTR Value2 Avol=1Meg GBW=80Meg Slew=10Meg
SYMATTR SpiceLine ilimit=25m rail=0 Vos=20u phimargin=45
SYMBOL res -256 176 R270
WINDOW 0 32 56 VTop 2
WINDOW 3 0 56 VBottom 2
SYMATTR InstName R12
SYMATTR Value 100k
SYMBOL res -16 80 R270
WINDOW 0 32 56 VTop 2
WINDOW 3 0 56 VBottom 2
SYMATTR InstName R13
SYMATTR Value 1k
SYMBOL res 96 320 R90
WINDOW 0 0 56 VBottom 2
WINDOW 3 32 56 VTop 2
SYMATTR InstName R14
SYMATTR Value 1k
SYMBOL res 32 192 R270
WINDOW 0 32 56 VTop 2
WINDOW 3 0 56 VBottom 2
SYMATTR InstName Relectrodo
SYMATTR Value 2Meg
SYMBOL voltage -1984 464 R0
SYMATTR InstName V1
SYMATTR Value 5
SYMBOL Opamps\\UniversalOpamp2 576 272 R0
SYMATTR InstName U5
SYMATTR Value2 Avol=1Meg GBW=80Meg Slew=10Meg
SYMATTR SpiceLine ilimit=25m rail=0 Vos=20u phimargin=45
SYMBOL res 480 304 R0
SYMATTR InstName R17
SYMATTR Value 10k
SYMBOL res 336 272 R270
WINDOW 0 32 56 VTop 2
WINDOW 3 0 56 VBottom 2
SYMATTR InstName R15
SYMATTR Value 33k
SYMBOL cap 256 272 R270
WINDOW 0 32 32 VTop 2
WINDOW 3 0 32 VBottom 2
SYMATTR InstName C4
SYMATTR Value 47n
SYMBOL voltage -1984 176 R0
WINDOW 0 41 14 Left 2
WINDOW 3 42 43 Left 2
WINDOW 123 0 0 Left 2
WINDOW 39 0 0 Left 2
SYMATTR InstName Vsen
SYMATTR Value SINE(0.5 0.4 1kHz)
SYMBOL SpecialFunctions\\LTC6992-1 -1584 256 R0
SYMATTR InstName U6
SYMBOL res -1760 352 R0
SYMATTR InstName Rset
SYMATTR Value 156.25k
SYMBOL cap -1344 272 R0
SYMATTR InstName C1
SYMATTR Value 0.1µ
SYMBOL res -1440 240 R0
SYMATTR InstName R1
SYMATTR Value 102
SYMBOL res -1440 320 R0
SYMATTR InstName R2
SYMATTR Value 976
SYMBOL res -688 160 R90
WINDOW 0 0 56 VBottom 2
WINDOW 3 32 56 VTop 2
SYMATTR InstName R8
SYMATTR Value 33k
SYMBOL res -544 160 R90
WINDOW 0 0 56 VBottom 2
WINDOW 3 32 56 VTop 2
SYMATTR InstName R9
SYMATTR Value 33k
SYMBOL res -272 288 R180
WINDOW 0 36 76 Left 2
WINDOW 3 36 40 Left 2
SYMATTR InstName R10
SYMATTR Value 2.2k
SYMBOL res -272 400 R180
WINDOW 0 36 76 Left 2
WINDOW 3 36 40 Left 2
SYMATTR InstName R11
SYMATTR Value 2.2k
SYMBOL Opamps\\UniversalOpamp2 -400 160 R0
SYMATTR InstName U2
SYMATTR Value2 Avol=1Meg GBW=80Meg Slew=10Meg
SYMATTR SpiceLine ilimit=25m rail=0 Vos=20u phimargin=45
SYMBOL cap -544 256 R0
SYMATTR InstName C2
SYMATTR Value 4.7n
SYMBOL cap -512 80 R270
WINDOW 0 32 32 VTop 2
WINDOW 3 0 32 VBottom 2
SYMATTR InstName C3
SYMATTR Value 4.7n
SYMBOL res -832 224 R0
SYMATTR InstName R7
SYMATTR Value 1k
SYMBOL res 80 960 R180
WINDOW 0 36 76 Left 2
WINDOW 3 36 40 Left 2
SYMATTR InstName Ra
SYMATTR Value 100k
SYMBOL res 80 848 R180
WINDOW 0 36 76 Left 2
WINDOW 3 36 40 Left 2
SYMATTR InstName Rb
SYMATTR Value 100k
SYMBOL res 160 720 R270
WINDOW 0 32 56 VTop 2
WINDOW 3 0 56 VBottom 2
SYMATTR InstName Rr
SYMATTR Value 200k
SYMBOL Opamps\\UniversalOpamp2 192 832 R0
SYMATTR InstName U1
SYMATTR Value2 Avol=1Meg GBW=80Meg Slew=10Meg
SYMATTR SpiceLine ilimit=25m rail=0 Vos=20u phimargin=45
SYMBOL res 640 112 R90
WINDOW 0 0 56 VBottom 2
WINDOW 3 32 56 VTop 2
SYMATTR InstName R16
SYMATTR Value 150k
SYMBOL voltage -1680 672 R0
WINDOW 0 41 14 Left 2
WINDOW 3 41 42 Left 2
WINDOW 123 0 0 Left 2
WINDOW 39 0 0 Left 2
SYMATTR InstName Vcte
SYMATTR Value 0.5
SYMBOL SpecialFunctions\\LTC6992-1 -1360 752 R0
SYMATTR InstName U7
SYMBOL res -1536 848 R0
SYMATTR InstName Rset1
SYMATTR Value 156.25k
SYMBOL cap -1120 768 R0
SYMATTR InstName C5
SYMATTR Value 0.1µ
SYMBOL res -1216 736 R0
SYMATTR InstName R18
SYMATTR Value 102
SYMBOL res -1216 816 R0
SYMATTR InstName R19
SYMATTR Value 976
SYMBOL res -688 656 R90
WINDOW 0 0 56 VBottom 2
WINDOW 3 32 56 VTop 2
SYMATTR InstName R20
SYMATTR Value 33k
SYMBOL res -544 656 R90
WINDOW 0 0 56 VBottom 2
WINDOW 3 32 56 VTop 2
SYMATTR InstName R21
SYMATTR Value 33k
SYMBOL res -272 784 R180
WINDOW 0 36 76 Left 2
WINDOW 3 36 40 Left 2
SYMATTR InstName R22
SYMATTR Value 2.2k
SYMBOL res -272 896 R180
WINDOW 0 36 76 Left 2
WINDOW 3 36 40 Left 2
SYMATTR InstName R23
SYMATTR Value 2.2k
SYMBOL Opamps\\UniversalOpamp2 -400 656 R0
SYMATTR InstName U3
SYMATTR Value2 Avol=1Meg GBW=80Meg Slew=10Meg
SYMATTR SpiceLine ilimit=25m rail=0 Vos=20u phimargin=45
SYMBOL cap -544 752 R0
SYMATTR InstName C6
SYMATTR Value 4.7n
SYMBOL cap -512 576 R270
WINDOW 0 32 32 VTop 2
WINDOW 3 0 32 VBottom 2
SYMATTR InstName C7
SYMATTR Value 4.7n
SYMBOL res -832 736 R0
SYMATTR InstName R24
SYMATTR Value 10k
SYMBOL res -832 656 R90
WINDOW 0 0 56 VBottom 2
WINDOW 3 32 56 VTop 2
SYMATTR InstName R25
SYMATTR Value 220k
SYMBOL res -832 160 R90
WINDOW 0 0 56 VBottom 2
WINDOW 3 32 56 VTop 2
SYMATTR InstName R3
SYMATTR Value 470k
TEXT -1896 584 Left 2 !.tran 0 16m 0 10u
TEXT -1208 152 Left 2 ;*** R3: Multiplexor ***\n \n200 nA => 470 k-ohm\n120 nA => 820 k-ohm\n  80 nA => 1.2 Meg-ohm\n  30 nA => 3.3 Meg-ohm
