Version 4
SHEET 1 1240 748
WIRE -1920 -192 -1952 -192
WIRE -1808 -192 -1840 -192
WIRE -2032 -144 -2032 -160
WIRE -1952 -80 -1952 -192
WIRE -1936 -80 -1952 -80
WIRE -1808 -64 -1808 -192
WIRE -1808 -64 -1872 -64
WIRE -1776 -64 -1808 -64
WIRE -2032 -48 -2032 -64
WIRE -1936 -48 -2032 -48
WIRE -2032 -32 -2032 -48
WIRE -2032 64 -2032 48
WIRE -512 64 -672 64
WIRE -288 64 -448 64
WIRE 0 64 -112 64
WIRE 176 64 80 64
WIRE 544 128 496 128
WIRE 672 128 624 128
WIRE -432 144 -448 144
WIRE -288 160 -288 64
WIRE -288 160 -368 160
WIRE -240 160 -288 160
WIRE -112 160 -112 64
WIRE -112 160 -160 160
WIRE -96 160 -112 160
WIRE -2048 176 -2320 176
WIRE -1488 176 -1824 176
WIRE -1344 176 -1488 176
WIRE -1200 176 -1344 176
WIRE -1056 176 -1200 176
WIRE -816 176 -848 176
WIRE -784 176 -816 176
WIRE -672 176 -672 64
WIRE -672 176 -704 176
WIRE -640 176 -672 176
WIRE -528 176 -560 176
WIRE -432 176 -528 176
WIRE 0 176 -32 176
WIRE 48 176 0 176
WIRE 176 176 176 64
WIRE 176 176 128 176
WIRE -2320 192 -2320 176
WIRE -288 192 -288 160
WIRE -96 192 -112 192
WIRE -1488 208 -1488 176
WIRE -1344 208 -1344 176
WIRE -1200 208 -1200 176
WIRE -1056 208 -1056 176
WIRE -816 240 -816 176
WIRE -2048 256 -2096 256
WIRE -1776 256 -1824 256
WIRE -1680 256 -1776 256
WIRE -1632 256 -1680 256
WIRE -528 256 -528 176
WIRE 0 256 0 176
WIRE 256 256 0 256
WIRE 352 256 320 256
WIRE 496 256 496 128
WIRE 496 256 432 256
WIRE 544 256 496 256
WIRE -1680 272 -1680 256
WIRE 672 272 672 128
WIRE 672 272 608 272
WIRE 736 272 672 272
WIRE -2320 288 -2320 272
WIRE -2096 288 -2096 256
WIRE -448 288 -448 144
WIRE -288 288 -288 272
WIRE -288 288 -448 288
WIRE 544 288 496 288
WIRE -288 304 -288 288
WIRE -1488 320 -1488 288
WIRE -1344 320 -1344 288
WIRE -1200 320 -1200 288
WIRE -1056 320 -1056 288
WIRE 496 320 496 288
WIRE -2048 336 -2096 336
WIRE -1776 336 -1824 336
WIRE -112 336 -112 192
WIRE 0 336 -112 336
WIRE 176 336 176 176
WIRE 176 336 80 336
WIRE -1680 352 -1680 336
WIRE -2096 368 -2096 336
WIRE -816 432 -816 320
WIRE -816 432 -848 432
WIRE -528 432 -528 320
WIRE -528 432 -816 432
WIRE -288 432 -288 384
WIRE -288 432 -528 432
WIRE -112 432 -112 336
WIRE -112 432 -288 432
WIRE 496 432 496 400
WIRE 496 432 -112 432
WIRE -2096 464 -2096 448
FLAG -2288 -144 Vcc
FLAG -2288 -64 0
FLAG 576 304 0
FLAG -64 208 0
FLAG -64 144 Vcc
FLAG 576 240 Vcc
FLAG -2320 288 0
FLAG -2096 288 0
FLAG -1632 256 Vcc
FLAG -2096 464 0
FLAG -1680 352 0
FLAG -1776 416 0
FLAG -848 432 Vcc/2
FLAG -400 192 0
FLAG -400 128 Vcc
FLAG -848 176 PWM-MUX
FLAG -1488 320 PWM-MUX
FLAG -2032 -160 Vcc
FLAG -2032 64 0
FLAG -1904 -96 Vcc
FLAG -1904 -32 0
FLAG -1776 -64 Vcc/2
FLAG 736 272 ADC
SYMBOL Opamps\\UniversalOpamp2 -64 176 R0
SYMATTR InstName U1
SYMBOL res -256 176 R270
WINDOW 0 32 56 VTop 2
WINDOW 3 0 56 VBottom 2
SYMATTR InstName R12
SYMATTR Value 100k
SYMBOL res -16 80 R270
WINDOW 0 32 56 VTop 2
WINDOW 3 0 56 VBottom 2
SYMATTR InstName R13
SYMATTR Value 1k
SYMBOL res 96 320 R90
WINDOW 0 0 56 VBottom 2
WINDOW 3 32 56 VTop 2
SYMATTR InstName R14
SYMATTR Value 1k
SYMBOL res 32 192 R270
WINDOW 0 32 56 VTop 2
WINDOW 3 0 56 VBottom 2
SYMATTR InstName Relectrodo
SYMATTR Value 2Meg
SYMBOL voltage -2288 -160 R0
SYMATTR InstName V1
SYMATTR Value 5
SYMBOL Opamps\\UniversalOpamp2 576 272 R0
SYMATTR InstName U2
SYMBOL res 480 304 R0
SYMATTR InstName R17
SYMATTR Value 10k
SYMBOL res 336 272 R270
WINDOW 0 32 56 VTop 2
WINDOW 3 0 56 VBottom 2
SYMATTR InstName R15
SYMATTR Value 33k
SYMBOL cap 256 272 R270
WINDOW 0 32 32 VTop 2
WINDOW 3 0 32 VBottom 2
SYMATTR InstName C4
SYMATTR Value 47n
SYMBOL voltage -2320 176 R0
WINDOW 0 41 14 Left 2
WINDOW 3 42 43 Left 2
WINDOW 123 0 0 Left 2
WINDOW 39 0 0 Left 2
SYMATTR InstName Vsen
SYMATTR Value SINE(0.5 0.4 1kHz)
SYMBOL SpecialFunctions\\LTC6992-1 -1936 256 R0
SYMATTR InstName U3
SYMBOL res -2112 352 R0
SYMATTR InstName Rset
SYMATTR Value 156.25k
SYMBOL cap -1696 272 R0
SYMATTR InstName C1
SYMATTR Value 0.1µ
SYMBOL res -1792 240 R0
SYMATTR InstName R1
SYMATTR Value 102
SYMBOL res -1792 320 R0
SYMATTR InstName R2
SYMATTR Value 976
SYMBOL res -688 160 R90
WINDOW 0 0 56 VBottom 2
WINDOW 3 32 56 VTop 2
SYMATTR InstName R8
SYMATTR Value 33k
SYMBOL res -544 160 R90
WINDOW 0 0 56 VBottom 2
WINDOW 3 32 56 VTop 2
SYMATTR InstName R9
SYMATTR Value 33k
SYMBOL res -272 288 R180
WINDOW 0 36 76 Left 2
WINDOW 3 36 40 Left 2
SYMATTR InstName R10
SYMATTR Value 2.2k
SYMBOL res -272 400 R180
WINDOW 0 36 76 Left 2
WINDOW 3 36 40 Left 2
SYMATTR InstName R11
SYMATTR Value 2.2k
SYMBOL Opamps\\UniversalOpamp2 -400 160 R0
SYMATTR InstName U4
SYMBOL cap -544 256 R0
SYMATTR InstName C2
SYMATTR Value 4.7n
SYMBOL cap -512 80 R270
WINDOW 0 32 32 VTop 2
WINDOW 3 0 32 VBottom 2
SYMATTR InstName C3
SYMATTR Value 4.7n
SYMBOL res -832 224 R0
SYMATTR InstName R7
SYMATTR Value 1k
SYMBOL res -1040 304 R180
WINDOW 0 36 76 Left 2
WINDOW 3 36 40 Left 2
SYMATTR InstName R6
SYMATTR Value 3.3Meg
SYMBOL res -1184 304 R180
WINDOW 0 36 76 Left 2
WINDOW 3 36 40 Left 2
SYMATTR InstName R5
SYMATTR Value 1.2Meg
SYMBOL res -1328 304 R180
WINDOW 0 36 76 Left 2
WINDOW 3 36 40 Left 2
SYMATTR InstName R4
SYMATTR Value 820k
SYMBOL res -1472 304 R180
WINDOW 0 36 76 Left 2
WINDOW 3 36 40 Left 2
SYMATTR InstName R3
SYMATTR Value 470k
SYMBOL res -2016 64 R180
WINDOW 0 36 76 Left 2
WINDOW 3 36 40 Left 2
SYMATTR InstName Ra
SYMATTR Value 100k
SYMBOL res -2016 -48 R180
WINDOW 0 36 76 Left 2
WINDOW 3 36 40 Left 2
SYMATTR InstName Rb
SYMATTR Value 100k
SYMBOL res -1936 -176 R270
WINDOW 0 32 56 VTop 2
WINDOW 3 0 56 VBottom 2
SYMATTR InstName Rr
SYMATTR Value 200k
SYMBOL Opamps\\UniversalOpamp2 -1904 -64 R0
SYMATTR InstName U5
SYMBOL res 640 112 R90
WINDOW 0 0 56 VBottom 2
WINDOW 3 32 56 VTop 2
SYMATTR InstName R16
SYMATTR Value 150k
TEXT -2320 0 Left 2 !.tran 0 16m 0 \n*.op
TEXT -1488 80 VRight 2 ;200 nA
TEXT -1344 80 VRight 2 ;120 nA
TEXT -1200 80 VRight 2 ;80 nA
TEXT -1056 80 VRight 2 ;30 nA
